Circuit: * D:\Studia\2stopien\Semestr 2\Metrologia Optyczna\Draft1.asc

Warning: Multiple definitions of model "2scr375p" Type: BJT
Warning: Multiple definitions of model "bc857b" Type: BJT
Warning: Multiple definitions of model "bc847c" Type: BJT
Warning: Multiple definitions of model "bc847b" Type: BJT
Direct Newton iteration for .op point succeeded.

Date: Sun Nov  2 12:52:00 2025
Total elapsed time: 0.861 seconds.

tnom = 27
temp = 27
method = modified trap
totiter = 338933
traniter = 338924
tranpoints = 86057
accept = 65286
rejected = 20771
matrix size = 22
fillins = 0
solver = Normal
Avg thread counts: 1.0/1.0/1.0/1.0
Matrix Compiler1: 908 bytes object code size  0.3/0.2/[0.2]
Matrix Compiler2: 1.49 KB object code size  0.3/0.2/[0.2]

